Circuit: * C:\Users\Michael\Google Drive\Studium\SS20\HLST-Praktikum-Summer-2020\simulations\7_Leistungsendstufe\Bias.asc

Direct Newton iteration for .op point succeeded.
N-Period=1
Fourier components of V(last)
DC component:-1.55162e-005

Harmonic	Frequency	 Fourier 	Normalized	 Phase  	Normalized
 Number 	  [Hz]   	Component	 Component	[degree]	Phase [deg]
    1   	1.000e+03	4.739e+00	1.000e+00	    0.04°	    0.00°
    2   	2.000e+03	4.615e-05	9.739e-06	  -52.93°	  -52.97°
    3   	3.000e+03	8.667e-04	1.829e-04	   -3.12°	   -3.16°
    4   	4.000e+03	9.255e-05	1.953e-05	  103.25°	  103.22°
    5   	5.000e+03	6.596e-04	1.392e-04	   27.28°	   27.25°
    6   	6.000e+03	2.415e-04	5.095e-05	  128.93°	  128.89°
    7   	7.000e+03	1.338e-03	2.823e-04	  157.17°	  157.13°
    8   	8.000e+03	6.010e-04	1.268e-04	  -42.68°	  -42.72°
    9   	9.000e+03	8.814e-04	1.860e-04	  -43.02°	  -43.05°
Total Harmonic Distortion: 0.043158%(0.072127%)



Date: Sun Sep 06 23:04:37 2020
Total elapsed time: 4.786 seconds.

tnom = 27
temp = 27
method = modified trap
totiter = 1000055
traniter = 1000042
tranpoints = 500022
accept = 500022
rejected = 0
matrix size = 23
fillins = 6
solver = Normal
Matrix Compiler1: 2.07 KB object code size  0.4/0.2/[0.2]
Matrix Compiler2: 2.23 KB object code size  0.2/0.3/[0.2]

