Circuit: * C:\Users\Michael\Google Drive\Studium\SS20\HLST-Praktikum-Summer-2020\simulations\7_Leistungsendstufe\Bias.asc

Direct Newton iteration for .op point succeeded.
N-Period=1
Fourier components of V(last)
DC component:0.00206837

Harmonic	Frequency	 Fourier 	Normalized	 Phase  	Normalized
 Number 	  [Hz]   	Component	 Component	[degree]	Phase [deg]
    1   	1.000e+03	3.653e+00	1.000e+00	    0.04°	    0.00°
    2   	2.000e+03	9.086e-05	2.487e-05	  -90.02°	  -90.06°
    3   	3.000e+03	3.697e-01	1.012e-01	  179.68°	  179.65°
    4   	4.000e+03	1.167e-03	3.194e-04	  -92.49°	  -92.52°
    5   	5.000e+03	1.663e-01	4.554e-02	  179.35°	  179.31°
    6   	6.000e+03	6.128e-04	1.678e-04	  -84.64°	  -84.67°
    7   	7.000e+03	7.747e-02	2.121e-02	  179.24°	  179.21°
    8   	8.000e+03	3.797e-04	1.039e-04	   89.69°	   89.66°
    9   	9.000e+03	3.165e-02	8.665e-03	  179.63°	  179.60°
Total Harmonic Distortion: 11.332513%(11.338006%)



Date: Sun Sep 06 18:53:44 2020
Total elapsed time: 3.960 seconds.

tnom = 27
temp = 27
method = modified trap
totiter = 1013558
traniter = 1013546
tranpoints = 500024
accept = 500024
rejected = 0
matrix size = 25
fillins = 6
solver = Normal
Matrix Compiler1: 2.11 KB object code size  0.3/0.2/[0.2]
Matrix Compiler2: off  [0.2]/0.3/0.2

