Circuit: * C:\Users\Michael\Google Drive\Studium\SS20\HLST-Praktikum-Summer-2020\simulations\7_Leistungsendstufe\rückkopplung\AudioAmp.asc

WARNING: Less than two connections to node N012.  This node is used by R4.
Direct Newton iteration for .op point succeeded.
N-Period=1
Fourier components of V(n009)
DC component:-0.00250902

Harmonic	Frequency	 Fourier 	Normalized	 Phase  	Normalized
 Number 	  [Hz]   	Component	 Component	[degree]	Phase [deg]
    1   	1.000e+04	1.318e+00	1.000e+00	   -2.72°	    0.00°
    2   	2.000e+04	1.782e-05	1.352e-05	  -41.07°	  -38.35°
    3   	3.000e+04	9.777e-06	7.416e-06	   45.94°	   48.66°
    4   	4.000e+04	7.030e-05	5.332e-05	  -92.57°	  -89.86°
    5   	5.000e+04	8.404e-05	6.375e-05	   -8.45°	   -5.74°
    6   	6.000e+04	3.634e-05	2.757e-05	 -108.12°	 -105.41°
    7   	7.000e+04	1.044e-04	7.918e-05	  -20.45°	  -17.74°
    8   	8.000e+04	9.337e-05	7.083e-05	   90.81°	   93.53°
    9   	9.000e+04	1.377e-05	1.045e-05	  -16.74°	  -14.03°
Total Harmonic Distortion: 0.013893%(0.037767%)



Date: Mon Sep 07 08:52:59 2020
Total elapsed time: 2.499 seconds.

tnom = 27
temp = 27
method = modified trap
totiter = 200047
traniter = 200037
tranpoints = 100018
accept = 100018
rejected = 0
matrix size = 61
fillins = 38
solver = Normal
Matrix Compiler1: 7.42 KB object code size  1.1/0.6/[0.5]
Matrix Compiler2: 6.37 KB object code size  0.4/0.6/[0.4]

